03_OpenDSS_Circuits/Flay_Circuit_Opendss/Sections.DSS
// *******************************
// Defines Line names (Sections) for fused and regulators
New Line.259529048 Bus1=259529045 Bus2=259529050
New Line.263960227 Bus1=259478708 Bus2=263960229
New Line.258425095 Bus1=258425092 Bus2=258425097
New Line.384399846 Bus1=258406465 Bus2=384399848
New Line.258425013 Bus1=258425010 Bus2=258425015
New Line.258425090 Bus1=258425080 Bus2=258425092
New Line.261061101 Bus1=260005788 Bus2=261061097
New Line.258406116 Bus1=258406113 Bus2=258406118
New Line.258406196 Bus1=258406193 Bus2=258406198
New Line.258425018 Bus1=258425015 Bus2=258425020
New Line.263395451 Bus1=258426039 Bus2=263395453
New Line.258406191 Bus1=258406188 Bus2=258406193
New Line.263395456 Bus1=263395453 Bus2=260663880
New Line.258406111 Bus1=258406108 Bus2=258406113
New Line.620861396 Bus1=258425075 Bus2=620861398
New Line.263391398 Bus1=258406033 Bus2=263391400
New Line.258425195 Bus1=258425192 Bus2=258425197
New Line.258425115 Bus1=258425112 Bus2=258425117
New Line.260664694 Bus1=260664691 Bus2=260664696
New Line.258425110 Bus1=258425102 Bus2=258425112
New Line.263395271 Bus1=258425393 Bus2=263395273
New Line.263395276 Bus1=263395273 Bus2=258425427
New Line.263391394 Bus1=263391391 Bus2=258406018
New Line.263395438 Bus1=263395435 Bus2=258425902
New Line.263395379 Bus1=258425640 Bus2=263395381
New Line.290683469 Bus1=258405593 Bus2=290683468
New Line.263395433 Bus1=258425892 Bus2=263395435
New Line.263395370 Bus1=258425635 Bus2=263395372
New Line.263395258 Bus1=263395255 Bus2=258425316
New Line.263395375 Bus1=263395372 Bus2=258425645
New Line.263395253 Bus1=258425306 Bus2=263395255
New Line.263866163 Bus1=258425443 Bus2=263866165
New Line.259126903 Bus1=258425772 Bus2=258425776
New Line.263866168 Bus1=263866165 Bus2=259374992
New Line.263733249 Bus1=263733246 Bus2=258406223
New Line.258424972 Bus1=258424969 Bus2=258424974
New Line.258425875 Bus1=258425872 Bus2=258425877
New Line.259196721 Bus1=258443861 Bus2=258443865
New Line.263395352 Bus1=258405784 Bus2=263395354
New Line.263755760 Bus1=263755757 Bus2=258425294
New Line.263733240 Bus1=263733237 Bus2=258405853
New Line.258425870 Bus1=258425871 Bus2=258425872
New Line.263395411 Bus1=263395408 Bus2=258425832
New Line.263395357 Bus1=263395354 Bus2=258425588
New Line.263733244 Bus1=258406178 Bus2=263733246
New Line.258424979 Bus1=258424974 Bus2=258424981
New Line.263395415 Bus1=258425852 Bus2=263395417
New Line.259316802 Bus1=426195270 Bus2=259316804
New Line.263733348 Bus1=263733345 Bus2=258443781
New Line.263395231 Bus1=263395228 Bus2=258425192
New Line.263998654 Bus1=263998651 Bus2=259552831
New Line.263395235 Bus1=258425254 Bus2=263395237
New Line.258425975 Bus1=258425972 Bus2=258425977
New Line.263733343 Bus1=258443774 Bus2=263733345
New Line.258424957 Bus1=258424954 Bus2=258424959
New Line.258424952 Bus1=258424939 Bus2=258424954
New Line.263395339 Bus1=263395336 Bus2=258425558
New Line.258425855 Bus1=258425852 Bus2=258425857
New Line.260662954 Bus1=260662951 Bus2=260662956
New Line.260663858 Bus1=260663855 Bus2=260663845
New Line.263395330 Bus1=263395327 Bus2=260663835
New Line.258425850 Bus1=258425827 Bus2=258425852
New Line.263733226 Bus1=258405801 Bus2=263733228
New Line.264148862 Bus1=259577429 Bus2=264148864
New Line.263395298 Bus1=258425478 Bus2=263395300
New Line.263395334 Bus1=258406003 Bus2=263395336
New Line.259196788 Bus1=258425473 Bus2=258425477
New Line.264148867 Bus1=264148864 Bus2=261434126
New Line.260663853 Bus1=260663850 Bus2=260663855
New Line.263395213 Bus1=263395210 Bus2=260663820
New Line.263395217 Bus1=258425187 Bus2=263395219
New Line.263395294 Bus1=263395291 Bus2=258425473
New Line.259471074 Bus1=259471071 Bus2=259471076
New Line.258425955 Bus1=258425942 Bus2=258425926
New Line.258424937 Bus1=258424934 Bus2=258424939
New Line.615922970 Bus1=615922930 Bus2=615922967
New Line.263733289 Bus1=258424934 Bus2=263733291
New Line.263733321 Bus1=263733318 Bus2=258444066
New Line.615922971 Bus1=615922967 Bus2=615922924
New Line.258425950 Bus1=258425946 Bus2=258425952
New Line.258424932 Bus1=258424929 Bus2=258424934
New Line.263399272 Bus1=258443639 Bus2=263399274
New Line.263733325 Bus1=258425730 Bus2=263733327
New Line.258425835 Bus1=258425832 Bus2=258425837
New Line.263395312 Bus1=263395309 Bus2=258425518
New Line.263395393 Bus1=263395390 Bus2=258425760
New Line.615922979 Bus1=258406580 Bus2=615922930
New Line.260663838 Bus1=260663835 Bus2=260663840
New Line.263399277 Bus1=263399274 Bus2=258443654
New Line.263733280 Bus1=258424934 Bus2=263733282
New Line.263395316 Bus1=258425503 Bus2=263395318
New Line.263395397 Bus1=258425792 Bus2=263395399
New Line.260662899 Bus1=260662896 Bus2=260662901
New Line.263733285 Bus1=263733282 Bus2=258424949
New Line.258405876 Bus1=258405873 Bus2=258405878
New Line.620695966 Bus1=258426034 Bus2=620695968
New Line.258443667 Bus1=258443664 Bus2=258443669
New Line.259596202 Bus1=259596203 Bus2=259596204
New Line.264148844 Bus1=259577439 Bus2=264148846
New Line.261434125 Bus1=261434126 Bus2=261433681
New Line.258443662 Bus1=258443654 Bus2=258443664
New Line.261434120 Bus1=261434117 Bus2=261433676
New Line.258405871 Bus1=258405868 Bus2=258405873
New Line.264148849 Bus1=264148846 Bus2=261434092
New Line.258425935 Bus1=258425932 Bus2=258425937
New Line.259577432 Bus1=259577429 Bus2=259577434
New Line.263399371 Bus1=258444093 Bus2=263399373
New Line.263399259 Bus1=263399256 Bus2=258443719
New Line.263399376 Bus1=263399373 Bus2=258444103
New Line.259259900 Bus1=258406078 Bus2=259259891
New Line.258425930 Bus1=258425922 Bus2=258425932
New Line.259577437 Bus1=259577434 Bus2=259577439
New Line.258424991 Bus1=258424981 Bus2=258424993
New Line.259332453 Bus1=258443634 Bus2=258443643
New Line.259550257 Bus1=258443759 Bus2=258443763
New Line.258405976 Bus1=258405973 Bus2=258405978
New Line.259474277 Bus1=259474274 Bus2=259474279
New Line.258425895 Bus1=258425892 Bus2=258425897
New Line.263399250 Bus1=263399247 Bus2=260664721
New Line.258425815 Bus1=258425812 Bus2=258425817
New Line.259474272 Bus1=259474269 Bus2=259474274
New Line.258443762 Bus1=258443763 Bus2=258443764
New Line.263395199 Bus1=258425177 Bus2=263395201
New Line.263399254 Bus1=258443569 Bus2=263399256
New Line.258425890 Bus1=258425887 Bus2=258425892
New Line.258405971 Bus1=258405968 Bus2=258405973
New Line.258424998 Bus1=258424993 Bus2=258425000
New Line.258405856 Bus1=258405848 Bus2=258405858
New Line.258443647 Bus1=258443644 Bus2=258126280
New Line.260663813 Bus1=260663810 Bus2=260663790
New Line.263399358 Bus1=263399355 Bus2=260664776
New Line.261434105 Bus1=261433687 Bus2=261433671
New Line.258443642 Bus1=258443643 Bus2=258443644
New Line.263395190 Bus1=258425045 Bus2=263395192
New Line.259281206 Bus1=259149287 Bus2=259281208
New Line.261434100 Bus1=261434097 Bus2=261433666
New Line.258425997 Bus1=258425994 Bus2=258425999
New Line.263395195 Bus1=263395192 Bus2=258425055
New Line.263399353 Bus1=258443981 Bus2=263399355
New Line.258443467 Bus1=258443464 Bus2=258443469
New Line.258425915 Bus1=258425897 Bus2=258425917
New Line.263399178 Bus1=263399175 Bus2=260664681
New Line.258425992 Bus1=258425987 Bus2=258425994
New Line.258443462 Bus1=258443459 Bus2=258443464
New Line.258425910 Bus1=258425907 Bus2=258425912
New Line.263399232 Bus1=263399229 Bus2=258443539
New Line.258405956 Bus1=258405953 Bus2=258405958
New Line.259474257 Bus1=258406520 Bus2=258406524
New Line.263399173 Bus1=258443424 Bus2=263399175
New Line.258443747 Bus1=258443744 Bus2=258443749
New Line.491242324 Bus1=491242316 Bus2=491242313
New Line.491242325 Bus1=491242313 Bus2=491242302
New Line.263399236 Bus1=258443539 Bus2=263399238
New Line.491242322 Bus1=491242318 Bus2=491242317
New Line.258443742 Bus1=258443739 Bus2=258443744
New Line.491242323 Bus1=491242317 Bus2=491242316
New Line.259240616 Bus1=258444159 Bus2=258444163
New Line.491242321 Bus1=491242319 Bus2=491242318
New Line.258405951 Bus1=258405948 Bus2=258405953
New Line.258405836 Bus1=258405828 Bus2=258405838
New Line.258443627 Bus1=258443584 Bus2=258443629
New Line.617401571 Bus1=617401567 Bus2=617401556
New Line.258443562 Bus1=258443559 Bus2=258443564
New Line.258443622 Bus1=258443614 Bus2=258443624
New Line.491242401 Bus1=491242397 Bus2=491242319
New Line.258405831 Bus1=258405828 Bus2=258405833
New Line.263954349 Bus1=258444139 Bus2=263954351
New Line.258443447 Bus1=258443444 Bus2=258443449
New Line.263702142 Bus1=258443386 Bus2=263702144
New Line.263399218 Bus1=258443524 Bus2=263399220
New Line.263399299 Bus1=258443811 Bus2=263399301
New Line.263399331 Bus1=263399328 Bus2=260664771
New Line.258443442 Bus1=258443439 Bus2=258443444
New Line.263399335 Bus1=258443871 Bus2=263399337
New Line.263702147 Bus1=263702144 Bus2=260972735
New Line.491242306 Bus1=491242301 Bus2=258444139
New Line.258405936 Bus1=258405933 Bus2=258405938
New Line.258443727 Bus1=258443724 Bus2=258443729
New Line.263399290 Bus1=258425927 Bus2=263399292
New Line.491242305 Bus1=258444132 Bus2=491242301
New Line.263399214 Bus1=263399211 Bus2=258443504
New Line.263399295 Bus1=263399292 Bus2=258443739
New Line.258405931 Bus1=258405928 Bus2=258405933
New Line.258405816 Bus1=258405806 Bus2=258405818
New Line.258443687 Bus1=258443674 Bus2=258443689
New Line.258405896 Bus1=258405893 Bus2=258405898
New Line.258443547 Bus1=258443544 Bus2=258443549
New Line.258443607 Bus1=258443604 Bus2=258443609
New Line.264353612 Bus1=261433676 Bus2=264353610
New Line.264487407 Bus1=258443564 Bus2=264487409
New Line.258443542 Bus1=258443534 Bus2=258443544
New Line.258443602 Bus1=258443599 Bus2=258443604
New Line.258443682 Bus1=258443674 Bus2=258443684
New Line.258405891 Bus1=258405888 Bus2=258405893
New Line.259203779 Bus1=258443866 Bus2=258443870
New Line.263399313 Bus1=263399310 Bus2=260664766
New Line.258443427 Bus1=258443424 Bus2=258443429
New Line.264487226 Bus1=258425583 Bus2=264487228
New Line.258443365 Bus1=258443352 Bus2=258443367
New Line.258443422 Bus1=258443419 Bus2=258443424
New Line.263399317 Bus1=258443826 Bus2=263399319
New Line.264487222 Bus1=264487219 Bus2=258425328
New Line.258443360 Bus1=258443352 Bus2=258443362
New Line.259987103 Bus1=258406677 Bus2=259987105
New Line.263399394 Bus1=263399391 Bus2=260664781
New Line.258405916 Bus1=258405913 Bus2=258405918
New Line.258405996 Bus1=258405997 Bus2=258405998
New Line.258443707 Bus1=258443684 Bus2=258443709
New Line.258443784 Bus1=258443781 Bus2=258443786
New Line.258443702 Bus1=258443694 Bus2=258443704
New Line.438022633 Bus1=258406383 Bus2=426195252
New Line.258405991 Bus1=258405983 Bus2=258405993
New Line.258405911 Bus1=258405898 Bus2=258405913
New Line.259266157 Bus1=258425075 Bus2=258425166
New Line.263834526 Bus1=263834523 Bus2=259335543
New Line.259491968 Bus1=258406028 Bus2=259491970
New Line.258443527 Bus1=258443524 Bus2=258443529
New Line.259400476 Bus1=258425402 Bus2=259400478
New Line.258443522 Bus1=258443519 Bus2=258443524
New Line.258443789 Bus1=258443786 Bus2=258443791
New Line.263834521 Bus1=258405868 Bus2=263834523
New Line.258443487 Bus1=258443479 Bus2=258443489
New Line.258443345 Bus1=258426156 Bus2=258443347
New Line.258443405 Bus1=258443402 Bus2=258443407
New Line.258443400 Bus1=258443397 Bus2=258443402
New Line.699613273 Bus1=258405744 Bus2=699613275
New Line.263399191 Bus1=258443464 Bus2=263399193
New Line.263399196 Bus1=263399193 Bus2=260664716
New Line.264353599 Bus1=264353601 Bus2=261433667
New Line.264487208 Bus1=255192292 Bus2=264487210
New Line.699613179 Bus1=258405662 Bus2=699613181
New Line.258443507 Bus1=258443504 Bus2=258443509
New Line.264377255 Bus1=258405791 Bus2=264377257
New Line.258443582 Bus1=258443579 Bus2=258443584
New Line.264377419 Bus1=258425603 Bus2=264377421
New Line.259988207 Bus1=258425700 Bus2=258425704
New Line.264487008 Bus1=258406368 Bus2=264487010
New Line.259457130 Bus1=259259891 Bus2=259259896
New Line.699613236 Bus1=699613233 Bus2=699613227
New Line.258443385 Bus1=258443386 Bus2=258443387
New Line.264377514 Bus1=264377511 Bus2=258444083
New Line.258443380 Bus1=258426146 Bus2=258443382
New Line.699613231 Bus1=258405702 Bus2=699613233
New Line.259420317 Bus1=258405687 Bus2=258405691
New Line.259202599 Bus1=258425558 Bus2=258425562
New Line.699613138 Bus1=699613135 Bus2=699613129
New Line.699613133 Bus1=258405692 Bus2=699613135
New Line.258406665 Bus1=258406652 Bus2=258406667
New Line.258406660 Bus1=258406657 Bus2=258406662
New Line.258425663 Bus1=258425660 Bus2=258425665
New Line.263981660 Bus1=263981657 Bus2=261266937
New Line.450041335 Bus1=450041331 Bus2=450041303
New Line.258444247 Bus1=258444244 Bus2=258444249
New Line.258425668 Bus1=258425665 Bus2=258425670
New Line.258444242 Bus1=258444239 Bus2=258444244
New Line.384331485 Bus1=384331459 Bus2=384331487
New Line.263855869 Bus1=260007367 Bus2=263855871
New Line.450041294 Bus1=258443729 Bus2=450041290
New Line.259207573 Bus1=258426146 Bus2=258443386
New Line.258425765 Bus1=258425760 Bus2=258425767
New Line.261433670 Bus1=261433671 Bus2=261433667
New Line.258406640 Bus1=615922786 Bus2=258406647
New Line.259589129 Bus1=259589130 Bus2=259589131
New Line.258406463 Bus1=258406455 Bus2=258406465
New Line.258444069 Bus1=258425578 Bus2=258444071
New Line.258425466 Bus1=258425463 Bus2=258425468
New Line.258426067 Bus1=258425967 Bus2=258426069
New Line.258444167 Bus1=258444164 Bus2=258444169
New Line.258444227 Bus1=258444224 Bus2=258444229
New Line.258426062 Bus1=258426059 Bus2=258426064
New Line.258425648 Bus1=258425640 Bus2=258425650
New Line.258444162 Bus1=258444163 Bus2=258444164
New Line.258444222 Bus1=258444219 Bus2=258444224
New Line.258425461 Bus1=258425279 Bus2=258425463
New Line.264146151 Bus1=258425699 Bus2=264146153
New Line.258443864 Bus1=258443865 Bus2=258443866
New Line.264146156 Bus1=264146153 Bus2=261430842
New Line.259149275 Bus1=258425427 Bus2=259149277
New Line.258444044 Bus1=258444041 Bus2=258444046
New Line.258425743 Bus1=258425740 Bus2=258425745
New Line.258406623 Bus1=258406620 Bus2=258406625
New Line.258425566 Bus1=258425563 Bus2=258425568
New Line.263391461 Bus1=258406218 Bus2=263391463
New Line.263391466 Bus1=263391463 Bus2=260662916
New Line.260028118 Bus1=258426019 Bus2=258426033
New Line.258425748 Bus1=258425749 Bus2=258425750
New Line.258443869 Bus1=258443870 Bus2=258443871
New Line.258406568 Bus1=258406530 Bus2=258406570
New Line.258425561 Bus1=258425562 Bus2=258425563
New Line.258406266 Bus1=258406263 Bus2=258406268
New Line.258426047 Bus1=258426044 Bus2=258426049
New Line.258443964 Bus1=258443961 Bus2=258443966
New Line.263391569 Bus1=258406595 Bus2=263391571
New Line.258444147 Bus1=258444139 Bus2=258444149
New Line.258444207 Bus1=258444208 Bus2=258444209
New Line.290021054 Bus1=258425807 Bus2=290021056
New Line.258405665 Bus1=258405662 Bus2=258405667
New Line.258426042 Bus1=258426039 Bus2=258426044
New Line.258425628 Bus1=258425625 Bus2=258425630
New Line.258406448 Bus1=258406438 Bus2=258406450
New Line.258444142 Bus1=258444139 Bus2=258444144
New Line.258444202 Bus1=258444199 Bus2=258444204
New Line.258405660 Bus1=258405657 Bus2=258405662
New Line.258425441 Bus1=258425373 Bus2=258425443
New Line.259228579 Bus1=258426111 Bus2=259228581
New Line.620861446 Bus1=620861418 Bus2=620861448
New Line.258406261 Bus1=258406258 Bus2=258406263
New Line.263391560 Bus1=258406550 Bus2=263391562
New Line.263391448 Bus1=263391445 Bus2=258406183
New Line.258425267 Bus1=258425259 Bus2=258425269
New Line.258443844 Bus1=258443841 Bus2=258443846
New Line.259248355 Bus1=258443372 Bus2=258443376
New Line.258444024 Bus1=258444021 Bus2=258444026
New Line.263391565 Bus1=263391562 Bus2=260662946
New Line.258425723 Bus1=258425720 Bus2=258425725
New Line.258443969 Bus1=258443966 Bus2=258443971
New Line.258406543 Bus1=258406540 Bus2=258406545
New Line.263391443 Bus1=258406013 Bus2=263391445
New Line.263782341 Bus1=263782338 Bus2=261052096
New Line.258406680 Bus1=258406677 Bus2=258406682
New Line.263909229 Bus1=259418041 Bus2=263909231
New Line.258425546 Bus1=258406445 Bus2=258425548
New Line.384503020 Bus1=384502983 Bus2=384503022
New Line.258406366 Bus1=258406248 Bus2=258406368
New Line.258406426 Bus1=258406423 Bus2=258406428
New Line.260981173 Bus1=260981170 Bus2=260981164
New Line.258405767 Bus1=258405764 Bus2=258405769
New Line.258426144 Bus1=258426136 Bus2=258426146
New Line.260663783 Bus1=260663780 Bus2=260663785
New Line.384503026 Bus1=384503022 Bus2=384502996
New Line.258425683 Bus1=258425680 Bus2=258425685
New Line.258425728 Bus1=258425725 Bus2=258425730
New Line.258443849 Bus1=258443836 Bus2=258443851
New Line.258406548 Bus1=258406545 Bus2=258406550
New Line.258425541 Bus1=258425527 Bus2=258425543
New Line.258425601 Bus1=258425598 Bus2=258425603
New Line.258406361 Bus1=258406358 Bus2=258406363
New Line.258406421 Bus1=258406388 Bus2=258406423
New Line.258444029 Bus1=258444026 Bus2=258444031
New Line.258425366 Bus1=258425363 Bus2=258425368
New Line.258425426 Bus1=258425427 Bus2=258425428
New Line.258406246 Bus1=258406243 Bus2=258406248
New Line.258426027 Bus1=258426024 Bus2=258426029
New Line.258443944 Bus1=258443941 Bus2=258443946
New Line.258405645 Bus1=699612980 Bus2=258405647
New Line.258425688 Bus1=258425680 Bus2=258425690
New Line.263391542 Bus1=258406525 Bus2=263391544
New Line.258425361 Bus1=258425353 Bus2=258425363
New Line.258425421 Bus1=258425418 Bus2=258425423
New Line.258444123 Bus1=258444115 Bus2=258444125
New Line.258406241 Bus1=258406238 Bus2=258406243
New Line.258406066 Bus1=258406063 Bus2=258406068
New Line.258443824 Bus1=258443821 Bus2=258443826
New Line.258425785 Bus1=258425782 Bus2=258425787
New Line.263391547 Bus1=263391544 Bus2=258406565
New Line.258425245 Bus1=258425246 Bus2=258425247
New Line.258444086 Bus1=258444083 Bus2=258444088
New Line.258444004 Bus1=258444001 Bus2=258444006
New Line.620861420 Bus1=258425152 Bus2=620861418
New Line.258425703 Bus1=258425704 Bus2=258425705
New Line.258443949 Bus1=258443941 Bus2=258443951
New Line.263782323 Bus1=263782320 Bus2=258425972
New Line.620861421 Bus1=620861418 Bus2=258425157
New Line.258406523 Bus1=258406524 Bus2=258406525
New Line.258425240 Bus1=258425237 Bus2=258425242
New Line.263391362 Bus1=258405893 Bus2=263391364
New Line.258425780 Bus1=258425777 Bus2=258425782
New Line.620861246 Bus1=258425070 Bus2=620861248
New Line.258406061 Bus1=258406038 Bus2=258406063
New Line.258425526 Bus1=258425527 Bus2=258425528
New Line.263391421 Bus1=263391418 Bus2=258406082
New Line.263782327 Bus1=258425926 Bus2=263782329
New Line.258406346 Bus1=258406343 Bus2=258406348
New Line.258426124 Bus1=258426121 Bus2=258426126
New Line.259548318 Bus1=258444194 Bus2=258444198
New Line.263391367 Bus1=263391364 Bus2=258405903
New Line.263391425 Bus1=258406123 Bus2=263391427
New Line.258405742 Bus1=258405739 Bus2=258405744
New Line.258406483 Bus1=258406480 Bus2=258406485
New Line.258425708 Bus1=258425705 Bus2=258425710
New Line.258443829 Bus1=258443821 Bus2=258443831
New Line.258406528 Bus1=258406525 Bus2=258406530
New Line.258425521 Bus1=258425522 Bus2=258425523
New Line.258406341 Bus1=258406338 Bus2=258406343
New Line.258406401 Bus1=426195246 Bus2=258406403
New Line.258444009 Bus1=258444001 Bus2=258444011
New Line.258425346 Bus1=258425333 Bus2=258425348
New Line.258425406 Bus1=258425407 Bus2=258425408
New Line.258426087 Bus1=258426084 Bus2=258426089
New Line.259217098 Bus1=259217099 Bus2=259217100
New Line.258406166 Bus1=258406163 Bus2=258406168
New Line.258406226 Bus1=258406178 Bus2=258406228
New Line.258426007 Bus1=258426004 Bus2=258426009
New Line.258443924 Bus1=258443921 Bus2=258443926
New Line.258444106 Bus1=258444103 Bus2=258444108
New Line.258444187 Bus1=258444184 Bus2=258444189
New Line.258426002 Bus1=258425999 Bus2=258426004
New Line.258425068 Bus1=258425065 Bus2=258425070
New Line.258425481 Bus1=258425478 Bus2=258425483
New Line.258426129 Bus1=258426126 Bus2=258426131
New Line.258405620 Bus1=258405617 Bus2=258405622
New Line.258406488 Bus1=258406485 Bus2=258406490
New Line.258425341 Bus1=258425338 Bus2=258425343
New Line.258425401 Bus1=258425402 Bus2=258425403
New Line.258444182 Bus1=258444179 Bus2=258444184
New Line.258406161 Bus1=258406158 Bus2=258406163
New Line.263391520 Bus1=263391517 Bus2=260662941
New Line.263934803 Bus1=263934800 Bus2=259446919
New Line.259239356 Bus1=258406485 Bus2=258406494
New Line.258406046 Bus1=258406043 Bus2=258406048
New Line.258443804 Bus1=258443796 Bus2=258443806
New Line.263391349 Bus1=263391346 Bus2=260662881
New Line.263391488 Bus1=258406243 Bus2=263391490
New Line.258443884 Bus1=258443881 Bus2=258443886
New Line.258425165 Bus1=258425166 Bus2=255192292
New Line.699612917 Bus1=699612913 Bus2=258405627
New Line.258406583 Bus1=258406580 Bus2=258406585
New Line.258443929 Bus1=258443926 Bus2=258443931
New Line.620861401 Bus1=620861398 Bus2=620861392
New Line.258406503 Bus1=258406500 Bus2=258406505
New Line.258425160 Bus1=258425075 Bus2=258425162
New Line.263997742 Bus1=258443763 Bus2=263997744
New Line.263391403 Bus1=263391400 Bus2=258406043
New Line.259198882 Bus1=258443754 Bus2=259198884
New Line.258425506 Bus1=258425503 Bus2=258425508
New Line.258406326 Bus1=258406323 Bus2=258406328
New Line.699612911 Bus1=258405617 Bus2=699612913
New Line.258405727 Bus1=699613251 Bus2=258405729
New Line.258426104 Bus1=258426094 Bus2=258426106
New Line.263391407 Bus1=258406063 Bus2=263391409
New Line.263997747 Bus1=263997744 Bus2=261282710
New Line.263391344 Bus1=258405714 Bus2=263391346
New Line.258443889 Bus1=258443886 Bus2=258443891
New Line.263391484 Bus1=263391481 Bus2=260663850
New Line.258425043 Bus1=258425040 Bus2=258425045
New Line.258443809 Bus1=258443806 Bus2=258443811
New Line.258425581 Bus1=258405784 Bus2=258425583
New Line.258425501 Bus1=258425498 Bus2=258425503
New Line.263395469 Bus1=258426136 Bus2=263395471
New Line.286927261 Bus1=259596204 Bus2=286927263
New Line.258406321 Bus1=258406318 Bus2=258406323
New Line.260664749 Bus1=260664746 Bus2=260664736
New Line.258406206 Bus1=258406198 Bus2=258406208
New Line.258443904 Bus1=258443901 Bus2=258443906
New Line.258406286 Bus1=258406283 Bus2=258406288
New Line.258443984 Bus1=258443985 Bus2=258443986
New Line.258405685 Bus1=258405667 Bus2=258405687
New Line.260664744 Bus1=260664741 Bus2=260664746
New Line.263663378 Bus1=263663375 Bus2=260881911
New Line.258425048 Bus1=258425045 Bus2=258425050
New Line.263395460 Bus1=258426074 Bus2=263395462
New Line.258405603 Bus1=258405600 Bus2=258405605
New Line.258426109 Bus1=258426101 Bus2=258426111
New Line.263391502 Bus1=263391499 Bus2=258406258
New Line.286927269 Bus1=286927263 Bus2=286927271
New Line.258406281 Bus1=258406278 Bus2=258406283
New Line.258425321 Bus1=258425311 Bus2=258425323
New Line.258406141 Bus1=258406133 Bus2=258406143
New Line.258406201 Bus1=258406193 Bus2=258406203
New Line.258425287 Bus1=258425284 Bus2=258425289
New Line.258406026 Bus1=258406023 Bus2=258406028
New Line.263391506 Bus1=258406338 Bus2=263391508
New Line.263395465 Bus1=263395462 Bus2=258426084
New Line.263663373 Bus1=259142547 Bus2=263663375
New Line.258425145 Bus1=258425142 Bus2=258425147
New Line.258425205 Bus1=258425202 Bus2=258425207
New Line.258443989 Bus1=258443986 Bus2=258443991
New Line.258425282 Bus1=258425274 Bus2=258425284
New Line.258443909 Bus1=258443906 Bus2=258443911
New Line.623897568 Bus1=264377421 Bus2=623897566
New Line.258425140 Bus1=258425132 Bus2=258425142
New Line.258425200 Bus1=258425197 Bus2=258425202
New Line.623897569 Bus1=623897566 Bus2=258425610
New Line.258406021 Bus1=258406018 Bus2=258406023
New Line.258406306 Bus1=258406303 Bus2=258406308
New Line.258406386 Bus1=258406383 Bus2=258406388
New Line.258425023 Bus1=258425020 Bus2=258425025
New Line.258405782 Bus1=258405779 Bus2=258405784
New Line.258406381 Bus1=258406378 Bus2=258406383
New Line.258406301 Bus1=258406298 Bus2=258406303
New Line.259219718 Bus1=258443684 Bus2=259219720
New Line.260664729 Bus1=260664726 Bus2=260664731
New Line.258406126 Bus1=258406123 Bus2=258406128
New Line.258425386 Bus1=258425378 Bus2=258425388
New Line.258425304 Bus1=258425294 Bus2=258425306
New Line.260664724 Bus1=260664721 Bus2=260664726
New Line.261061096 Bus1=261061097 Bus2=261061098
New Line.263395442 Bus1=258426014 Bus2=263395444
New Line.258425028 Bus1=258424964 Bus2=258425030
New Line.258405789 Bus1=258405779 Bus2=258405791
New Line.258425381 Bus1=258425378 Bus2=258425383
New Line.264338257 Bus1=260663785 Bus2=264338255
New Line.258406121 Bus1=258406122 Bus2=258406123
New Line.260664689 Bus1=260664686 Bus2=260664691
New Line.263395447 Bus1=263395444 Bus2=258426024
New Line.263391389 Bus1=258406008 Bus2=263391391
New Line.258406006 Bus1=258405998 Bus2=258406008
New Line.258406086 Bus1=258406083 Bus2=258406088
New Line.258425125 Bus1=258425097 Bus2=258425127
New Line.263395262 Bus1=258425363 Bus2=263395264
New Line.260664684 Bus1=260664681 Bus2=260664686
New Line.263960232 Bus1=263960229 Bus2=261243331
New Line.258425120 Bus1=258425117 Bus2=258425122
New Line.258425309 Bus1=258425306 Bus2=258425311
New Line.385859012 Bus1=385859010 Bus2=259596209
New Line.258406081 Bus1=258406082 Bus2=258406083
New Line.258406001 Bus1=258405998 Bus2=258406003
New Line.263395267 Bus1=263395264 Bus2=260663825
New Line.263391380 Bus1=258405938 Bus2=263391382
New Line.385859011 Bus1=259596203 Bus2=385859010
New Line.384399851 Bus1=384399848 Bus2=384399842
New Line.258425085 Bus1=258425080 Bus2=258425087
New Line.263391385 Bus1=263391382 Bus2=260662886
New Line.258425003 Bus1=258425000 Bus2=258425005
New Line.263395429 Bus1=263395426 Bus2=260663875
New Line.616790327 Bus1=258444208 Bus2=616790329
New Line.258406106 Bus1=258406103 Bus2=258406108
New Line.258406186 Bus1=258406183 Bus2=258406188
New Line.260664704 Bus1=260664701 Bus2=260664706
New Line.259181477 Bus1=258425242 Bus2=258425246
New Line.259418039 Bus1=258443629 Bus2=259418041
New Line.258425008 Bus1=258425005 Bus2=258425010
New Line.263395420 Bus1=263395417 Bus2=258425862
New Line.259363665 Bus1=FLAY_RET_16271201_reg Bus2=258405587
New Line.263395361 Bus1=258425615 Bus2=263395363
New Line.263395249 Bus1=263395246 Bus2=258425448
New Line.263395366 Bus1=263395363 Bus2=258425625
New Line.258406101 Bus1=258406098 Bus2=258406103
New Line.263395424 Bus1=258425882 Bus2=263395426
New Line.258425185 Bus1=258425182 Bus2=258425187
New Line.263794328 Bus1=263794326 Bus2=258425522
New Line.258425105 Bus1=258425102 Bus2=258425107
New Line.263395240 Bus1=263395237 Bus2=258425264
New Line.384502987 Bus1=384502983 Bus2=384502968
New Line.258425100 Bus1=258425092 Bus2=258425102
New Line.258425180 Bus1=258425177 Bus2=258425182
New Line.263395244 Bus1=258425289 Bus2=263395246
New Line.384399831 Bus1=258406494 Bus2=384399833
New Line.384399836 Bus1=384399833 Bus2=258406495
New Line.384502988 Bus1=450041290 Bus2=384502983
New Line.263794324 Bus1=258425508 Bus2=263794326
New Line.263395348 Bus1=263395345 Bus2=260663865
New Line.263395402 Bus1=263395399 Bus2=260663870
New Line.263395343 Bus1=258405818 Bus2=263395345
New Line.263395406 Bus1=258425817 Bus2=263395408
New Line.290683470 Bus1=290683468 Bus2=258405600
New Line.261213171 Bus1=259446919 Bus2=261213173
New Line.263395222 Bus1=263395219 Bus2=260663795
New Line.263395226 Bus1=258406490 Bus2=263395228
New Line.290683555 Bus1=290683552 Bus2=290683440
New Line.290683550 Bus1=258405587 Bus2=290683552
New Line.263998649 Bus1=258425852 Bus2=263998651
New Line.263733258 Bus1=263733255 Bus2=258406445
New Line.258424962 Bus1=258424959 Bus2=258424964
New Line.260662949 Bus1=260662946 Bus2=260662951
New Line.615922862 Bus1=258406605 Bus2=615922859
New Line.258425865 Bus1=258425862 Bus2=258425867
New Line.263733253 Bus1=258406438 Bus2=263733255
New Line.615922863 Bus1=615922859 Bus2=258406610
New Line.263395208 Bus1=258425187 Bus2=263395210
New Line.263395289 Bus1=258406460 Bus2=263395291
New Line.263395321 Bus1=263395318 Bus2=258425513
New Line.259197613 Bus1=258443916 Bus2=258443985
New Line.263395325 Bus1=258406233 Bus2=263395327
New Line.263395280 Bus1=258425468 Bus2=263395282
New Line.263395204 Bus1=263395201 Bus2=260663780
New Line.263395285 Bus1=263395282 Bus2=260663830
New Line.263733352 Bus1=258443387 Bus2=263733354
New Line.258425965 Bus1=258425946 Bus2=258425967
New Line.263399268 Bus1=263399265 Bus2=258443589
New Line.258425960 Bus1=258425926 Bus2=258425962
New Line.264310935 Bus1=260664706 Bus2=264310933
New Line.263395388 Bus1=258425750 Bus2=263395390
New Line.263733357 Bus1=263733354 Bus2=258443392
New Line.260662929 Bus1=260662926 Bus2=260662931
New Line.259259895 Bus1=259259896 Bus2=259259897
New Line.263399263 Bus1=258443579 Bus2=263399265
New Line.258425845 Bus1=258425842 Bus2=258425847
New Line.260662924 Bus1=260662921 Bus2=260662926
New Line.290683439 Bus1=290683440 Bus2=290683441
New Line.263395303 Bus1=263395300 Bus2=258425488
New Line.290683436 Bus1=290683441 Bus2=258405593
New Line.263733231 Bus1=263733228 Bus2=258405813
New Line.258425840 Bus1=258425837 Bus2=258425842
New Line.259240666 Bus1=258425458 Bus2=259217099
New Line.259259890 Bus1=259259891 Bus2=258406122
New Line.263956610 Bus1=258406524 Bus2=263956612
New Line.263395307 Bus1=258425503 Bus2=263395309
New Line.263755755 Bus1=258425289 Bus2=263755757
New Line.263733235 Bus1=258405848 Bus2=263733237
New Line.264148871 Bus1=259577429 Bus2=264148873
New Line.263395384 Bus1=263395381 Bus2=258425655
New Line.264148876 Bus1=264148873 Bus2=261433687
New Line.258443677 Bus1=258443674 Bus2=258443679
New Line.259596212 Bus1=258444208 Bus2=259596203
New Line.263956615 Bus1=263956612 Bus2=259474254
New Line.258443672 Bus1=258443669 Bus2=258443674
New Line.263733339 Bus1=263733336 Bus2=258425797
New Line.263399362 Bus1=258444041 Bus2=263399364
New Line.258425945 Bus1=258425946 Bus2=258425947
New Line.259577442 Bus1=259577439 Bus2=258406032
New Line.258424927 Bus1=258406625 Bus2=258424929
New Line.259550262 Bus1=258444071 Bus2=258444077
New Line.263733330 Bus1=263733327 Bus2=258425735
New Line.263399367 Bus1=263399364 Bus2=258444051
New Line.258425940 Bus1=258425937 Bus2=258425942
New Line.263733334 Bus1=258425787 Bus2=263733336
New Line.260662909 Bus1=260662906 Bus2=260662911
New Line.258425825 Bus1=258425817 Bus2=258425827
New Line.260662904 Bus1=260662901 Bus2=260662906
New Line.263399241 Bus1=263399238 Bus2=260664741
New Line.258443772 Bus1=258425822 Bus2=258443774
New Line.260663808 Bus1=260663805 Bus2=260663810
New Line.258425820 Bus1=258425817 Bus2=258425822
New Line.263399245 Bus1=258443539 Bus2=263399247
New Line.264148853 Bus1=259577439 Bus2=264148855
New Line.263733294 Bus1=263733291 Bus2=258424944
New Line.258405866 Bus1=258405858 Bus2=258405868
New Line.258443657 Bus1=258443654 Bus2=258443659
New Line.259142545 Bus1=258443886 Bus2=259142547
New Line.260663803 Bus1=260663800 Bus2=260663805
New Line.260011481 Bus1=258405993 Bus2=258405997
New Line.263399349 Bus1=263399346 Bus2=258443941
New Line.263395181 Bus1=258424959 Bus2=263395183
New Line.620695972 Bus1=620695968 Bus2=620695940
New Line.264148858 Bus1=264148855 Bus2=261434112
New Line.258405861 Bus1=258405858 Bus2=258405863
New Line.263395186 Bus1=263395183 Bus2=258424969
New Line.258443477 Bus1=258443474 Bus2=258443479
New Line.263399340 Bus1=263399337 Bus2=258443881
New Line.258425925 Bus1=258425926 Bus2=258425927
New Line.261434095 Bus1=261434092 Bus2=261434097
New Line.263399169 Bus1=263399166 Bus2=258443357
New Line.258443472 Bus1=258443469 Bus2=258443474
New Line.258424984 Bus1=258424981 Bus2=258424986
New Line.258425920 Bus1=258425917 Bus2=258425922
New Line.263399344 Bus1=258443936 Bus2=263399346
New Line.263733316 Bus1=258425704 Bus2=263733318
New Line.259577427 Bus1=259491970 Bus2=259577429
New Line.258405966 Bus1=258405963 Bus2=258405968
New Line.259474267 Bus1=259474264 Bus2=259474269
New Line.260007622 Bus1=260007367 Bus2=258425946
New Line.263399223 Bus1=263399220 Bus2=260664761
New Line.258425885 Bus1=258425857 Bus2=258425887
New Line.258443757 Bus1=258443758 Bus2=258443759
New Line.258425805 Bus1=258425802 Bus2=258425807
New Line.259474262 Bus1=259474254 Bus2=259474264
New Line.258443752 Bus1=258443749 Bus2=258443754
New Line.263399227 Bus1=258443529 Bus2=263399229
New Line.258425800 Bus1=258425787 Bus2=258425802
New Line.263399164 Bus1=258443347 Bus2=263399166
New Line.258425880 Bus1=258425871 Bus2=258425882
New Line.258405961 Bus1=258405958 Bus2=258405963
New Line.617401565 Bus1=258406032 Bus2=617401567
New Line.258405846 Bus1=258405838 Bus2=258405848
New Line.258443577 Bus1=258443574 Bus2=258443579
New Line.258443637 Bus1=258443634 Bus2=258443639
New Line.261434115 Bus1=261434112 Bus2=261434117
New Line.620695955 Bus1=620695940 Bus2=620695957
New Line.258443572 Bus1=258443569 Bus2=258443574
New Line.258443632 Bus1=258443633 Bus2=258443634
New Line.259596197 Bus1=259596194 Bus2=258444208
New Line.258405841 Bus1=258405838 Bus2=258405843
New Line.263399322 Bus1=263399319 Bus2=258443841
New Line.258425985 Bus1=258425982 Bus2=258425987
New Line.258443457 Bus1=258443454 Bus2=258443459
New Line.615922902 Bus1=615922898 Bus2=258406605
New Line.258425905 Bus1=258425902 Bus2=258425907
New Line.263399209 Bus1=258443494 Bus2=263399211
New Line.263399326 Bus1=258443856 Bus2=263399328
New Line.258443452 Bus1=258443444 Bus2=258443454
New Line.615922901 Bus1=258406585 Bus2=615922898
New Line.258425980 Bus1=258425977 Bus2=258425982
New Line.263399200 Bus1=258443474 Bus2=263399202
New Line.263399281 Bus1=258443724 Bus2=263399283
New Line.724080052 Bus1=724080049 Bus2=258405796
New Line.263399286 Bus1=263399283 Bus2=260664756
New Line.263399205 Bus1=263399202 Bus2=258443484
New Line.724080051 Bus1=264377257 Bus2=724080049
New Line.258405941 Bus1=258405938 Bus2=258405943
New Line.260007365 Bus1=259108646 Bus2=260007367
New Line.258405826 Bus1=258405823 Bus2=258405828
New Line.258443697 Bus1=258443694 Bus2=258443699
New Line.258443557 Bus1=258443554 Bus2=258443559
New Line.258443617 Bus1=258443609 Bus2=258443619
New Line.263399308 Bus1=258443831 Bus2=263399310
New Line.263399389 Bus1=258444254 Bus2=263399391
New Line.264353603 Bus1=261433666 Bus2=264353601
New Line.258443552 Bus1=258443549 Bus2=258443554
New Line.258443612 Bus1=258443609 Bus2=258443614
New Line.263954354 Bus1=263954351 Bus2=259471071
New Line.258443692 Bus1=258443689 Bus2=258443694
New Line.258405821 Bus1=258405806 Bus2=258405823
New Line.258443437 Bus1=258443434 Bus2=258443439
New Line.259266062 Bus1=258425867 Bus2=258425871
New Line.263399380 Bus1=258444169 Bus2=263399382
New Line.278291394 Bus1=258444194 Bus2=278291396
New Line.258443375 Bus1=258443376 Bus2=258443377
New Line.258443432 Bus1=258443429 Bus2=258443434
New Line.259585594 Bus1=258405933 Bus2=259585596
New Line.263399304 Bus1=263399301 Bus2=258443821
New Line.263399385 Bus1=263399382 Bus2=258444179
New Line.258443370 Bus1=258443367 Bus2=258443372
New Line.258405926 Bus1=258405918 Bus2=258405928
New Line.491242395 Bus1=491242301 Bus2=491242397
New Line.258443794 Bus1=258443791 Bus2=258443796
New Line.258443712 Bus1=258443709 Bus2=258443714
New Line.258405921 Bus1=258405918 Bus2=258405923
New Line.258405886 Bus1=258405883 Bus2=258405888
New Line.264487416 Bus1=258126280 Bus2=264487418
New Line.258405804 Bus1=258405801 Bus2=258405806
New Line.258443532 Bus1=258443533 Bus2=258443534
New Line.258443799 Bus1=258443796 Bus2=258443801
New Line.264487412 Bus1=264487409 Bus2=258443569
New Line.258405881 Bus1=258405878 Bus2=258405883
New Line.258443497 Bus1=258443494 Bus2=258443499
New Line.258443417 Bus1=258443412 Bus2=258443419
New Line.384399748 Bus1=384399746 Bus2=258406510
New Line.258443492 Bus1=258443489 Bus2=258443494
New Line.258443350 Bus1=258443347 Bus2=258443352
New Line.258443410 Bus1=258443407 Bus2=258443412
New Line.264487231 Bus1=264487228 Bus2=258425598
New Line.438022626 Bus1=426195252 Bus2=438022625
New Line.258405906 Bus1=258405903 Bus2=258405908
New Line.263399182 Bus1=258443429 Bus2=263399184
New Line.438022627 Bus1=438022625 Bus2=426195246
New Line.258405986 Bus1=258405983 Bus2=258405988
New Line.259547601 Bus1=258443529 Bus2=258443533
New Line.263399187 Bus1=263399184 Bus2=260664701
New Line.384399747 Bus1=258406505 Bus2=384399746
New Line.258405981 Bus1=258405943 Bus2=258405983
New Line.258443597 Bus1=258443594 Bus2=258443599
New Line.258443517 Bus1=258443514 Bus2=258443519
New Line.263934798 Bus1=258443758 Bus2=263934800
New Line.274934389 Bus1=263391571 Bus2=258406600
New Line.258443512 Bus1=258443499 Bus2=258443514
New Line.258443592 Bus1=258443589 Bus2=258443594
New Line.264487217 Bus1=258425323 Bus2=264487219
New Line.259202609 Bus1=258425745 Bus2=258425749
New Line.259288077 Bus1=258443362 Bus2=259288079
New Line.259988212 Bus1=258425695 Bus2=258425699
New Line.264377509 Bus1=258444078 Bus2=264377511
New Line.259478706 Bus1=258425407 Bus2=259478708
New Line.259362845 Bus1=259362846 Bus2=259362847
New Line.699613249 Bus1=258405702 Bus2=699613251
New Line.258443395 Bus1=258443392 Bus2=258443397
New Line.259478701 Bus1=258425403 Bus2=258425407
New Line.699613243 Bus1=699613227 Bus2=258444259
New Line.699613069 Bus1=699613066 Bus2=258405682
New Line.699613064 Bus1=258405672 Bus2=699613066
New Line.264487013 Bus1=264487010 Bus2=258406373
New Line.384331452 Bus1=259228586 Bus2=384331454
New Line.384331457 Bus1=384331454 Bus2=384331459
New Line.491389326 Bus1=491389324 Bus2=258443769
New Line.491389325 Bus1=258443764 Bus2=491389324
New Line.258406675 Bus1=258406672 Bus2=258406677
New Line.258406670 Bus1=258406667 Bus2=258406672
New Line.258425673 Bus1=258425665 Bus2=258425675
New Line.258425678 Bus1=258425675 Bus2=258425680
New Line.258444252 Bus1=258444214 Bus2=258444254
New Line.259400481 Bus1=258425388 Bus2=258425402
New Line.258444076 Bus1=258444077 Bus2=258444078
New Line.258425775 Bus1=258425776 Bus2=258425777
New Line.264357164 Bus1=260662931 Bus2=264357162
New Line.450041329 Bus1=450041290 Bus2=450041331
New Line.258406655 Bus1=258406647 Bus2=258406657
New Line.426195274 Bus1=426195246 Bus2=426195276
New Line.258425770 Bus1=258425755 Bus2=258425772
New Line.258406650 Bus1=258406647 Bus2=258406652
New Line.259589134 Bus1=258443564 Bus2=259589130
New Line.426195279 Bus1=426195276 Bus2=426195270
New Line.263855874 Bus1=263855871 Bus2=259362846
New Line.258406473 Bus1=258406465 Bus2=258406475
New Line.258425476 Bus1=258425477 Bus2=258425478
New Line.258426077 Bus1=258426074 Bus2=258426079
New Line.699613185 Bus1=258405692 Bus2=258405702
New Line.258444237 Bus1=258444234 Bus2=258444239
New Line.384331491 Bus1=384331487 Bus2=384331483
New Line.699613184 Bus1=699613181 Bus2=258405672
New Line.258426072 Bus1=258426069 Bus2=258426074
New Line.258425658 Bus1=258425655 Bus2=258425660
New Line.259998110 Bus1=258443633 Bus2=259998112
New Line.258406478 Bus1=258406465 Bus2=258406480
New Line.258444172 Bus1=258444169 Bus2=258444174
New Line.258444232 Bus1=258444229 Bus2=258444234
New Line.290021060 Bus1=290021056 Bus2=258425812
New Line.258443874 Bus1=258443871 Bus2=258443876
New Line.259998115 Bus1=258443584 Bus2=258443633
New Line.258406635 Bus1=615922786 Bus2=258406637
New Line.258444054 Bus1=258444051 Bus2=258444056
New Line.258425753 Bus1=258425750 Bus2=258425755
New Line.258406573 Bus1=258406570 Bus2=258406575
New Line.258425576 Bus1=258405784 Bus2=258425578
New Line.258425633 Bus1=258425620 Bus2=258425635
New Line.258406453 Bus1=258406450 Bus2=258406455
New Line.258406578 Bus1=258406575 Bus2=258406580
New Line.258425571 Bus1=258405853 Bus2=258425573
New Line.264245364 Bus1=260664731 Bus2=264245362
New Line.258444059 Bus1=258444046 Bus2=258444061
New Line.258425456 Bus1=258425453 Bus2=258425458
New Line.258406276 Bus1=258406273 Bus2=258406278
New Line.258426057 Bus1=258426049 Bus2=258426059
New Line.258443974 Bus1=258443931 Bus2=258443976
New Line.264036326 Bus1=264036323 Bus2=259596194
New Line.258444157 Bus1=258444154 Bus2=258444159
New Line.258444217 Bus1=258444204 Bus2=258444219
New Line.258405675 Bus1=258405672 Bus2=258405677
New Line.258426052 Bus1=258426049 Bus2=258426054
New Line.258425638 Bus1=258425635 Bus2=258425640
New Line.263981655 Bus1=258425463 Bus2=263981657
New Line.258406458 Bus1=258406455 Bus2=258406460
New Line.258444152 Bus1=258444149 Bus2=258444154
New Line.258444212 Bus1=258444204 Bus2=258444214
New Line.260972734 Bus1=260972735 Bus2=260972736
New Line.258425451 Bus1=258425448 Bus2=258425453
New Line.258406271 Bus1=258406268 Bus2=258406273
New Line.264036321 Bus1=258444199 Bus2=264036323
New Line.258425277 Bus1=258425274 Bus2=258425279
New Line.258443854 Bus1=258443836 Bus2=258443856
New Line.263391479 Bus1=258406233 Bus2=263391481
New Line.258425272 Bus1=258425269 Bus2=258425274
New Line.258444034 Bus1=258444031 Bus2=258444036
New Line.258443979 Bus1=258443976 Bus2=258443981
New Line.258406553 Bus1=258406550 Bus2=258406555
New Line.258406613 Bus1=258406610 Bus2=258406615
New Line.264276849 Bus1=260663840 Bus2=264276847
New Line.263391470 Bus1=258406228 Bus2=263391472
New Line.258406376 Bus1=258406373 Bus2=258406378
New Line.258406436 Bus1=258406433 Bus2=258406438
New Line.260981163 Bus1=260981164 Bus2=260981165
New Line.258405777 Bus1=258405774 Bus2=258405779
New Line.258426154 Bus1=258426151 Bus2=258426156
New Line.258425693 Bus1=258425650 Bus2=258425695
New Line.263391475 Bus1=263391472 Bus2=260662921
New Line.258405772 Bus1=258405759 Bus2=258405774
New Line.258425613 Bus1=258425610 Bus2=258425615
New Line.258425738 Bus1=258425730 Bus2=258425740
New Line.258443859 Bus1=258443851 Bus2=258443861
New Line.258406558 Bus1=258406555 Bus2=258406560
New Line.258406618 Bus1=258406615 Bus2=258406620
New Line.258425551 Bus1=258425548 Bus2=258425553
New Line.258406431 Bus1=258406428 Bus2=258406433
New Line.258444039 Bus1=258444031 Bus2=258444041
New Line.258425376 Bus1=258425368 Bus2=258425378
New Line.258425436 Bus1=258425428 Bus2=258425438
New Line.258426037 Bus1=258426034 Bus2=258426039
New Line.258443954 Bus1=258443951 Bus2=258443956
New Line.258405655 Bus1=258405652 Bus2=258405657
New Line.258426032 Bus1=258426033 Bus2=258426034
New Line.258425618 Bus1=258425615 Bus2=258425620
New Line.258425698 Bus1=258425699 Bus2=258425700
New Line.258405650 Bus1=258405637 Bus2=258405652
New Line.258425371 Bus1=258425368 Bus2=258425373
New Line.258425431 Bus1=258425428 Bus2=258425433
New Line.258406251 Bus1=258406243 Bus2=258406253
New Line.258444130 Bus1=258444098 Bus2=258444132
New Line.258406076 Bus1=258406068 Bus2=258406078
New Line.258425257 Bus1=258425254 Bus2=258425259
New Line.258443834 Bus1=258443826 Bus2=258443836
New Line.620861452 Bus1=620861448 Bus2=620861437
New Line.258444096 Bus1=258444093 Bus2=258444098
New Line.263391574 Bus1=263391571 Bus2=260662961
New Line.263909234 Bus1=263909231 Bus2=261184167
New Line.258425252 Bus1=258425247 Bus2=258425254
New Line.258444014 Bus1=258443816 Bus2=258444016
New Line.258425713 Bus1=258425710 Bus2=258425715
New Line.258443959 Bus1=258443946 Bus2=258443961
New Line.261433680 Bus1=261433681 Bus2=261433677
New Line.260663798 Bus1=260663795 Bus2=260663800
New Line.263391452 Bus1=258406013 Bus2=263391454
New Line.258425790 Bus1=258425782 Bus2=258425792
New Line.258444091 Bus1=258444088 Bus2=258444093
New Line.258425536 Bus1=258425523 Bus2=258425527
New Line.258406356 Bus1=258406353 Bus2=258406358
New Line.258406416 Bus1=258406413 Bus2=258406418
New Line.258405757 Bus1=258405754 Bus2=258405759
New Line.258426134 Bus1=258426131 Bus2=258426136
New Line.263391457 Bus1=263391454 Bus2=260662896
New Line.258405752 Bus1=699613275 Bus2=258405754
New Line.258425073 Bus1=258425070 Bus2=258425075
New Line.258425718 Bus1=258425715 Bus2=258425720
New Line.258406538 Bus1=258406535 Bus2=258406540
New Line.258425531 Bus1=258425528 Bus2=258425533
New Line.258406351 Bus1=258406348 Bus2=258406353
New Line.258406411 Bus1=258406403 Bus2=258406413
New Line.258444019 Bus1=258443816 Bus2=258444021
New Line.258425356 Bus1=258425353 Bus2=258425358
New Line.258425416 Bus1=258425413 Bus2=258425418
New Line.258406176 Bus1=258406013 Bus2=258406178
New Line.258406236 Bus1=258406233 Bus2=258406238
New Line.258425496 Bus1=258425483 Bus2=258425498
New Line.258426017 Bus1=258426014 Bus2=258426019
New Line.258443934 Bus1=258443926 Bus2=258443936
New Line.258444197 Bus1=258444198 Bus2=258444199
New Line.258405635 Bus1=258405622 Bus2=258405637
New Line.258426012 Bus1=258426009 Bus2=258426014
New Line.258426092 Bus1=258426089 Bus2=258426094
New Line.258425491 Bus1=258425488 Bus2=258425493
New Line.258426139 Bus1=258426136 Bus2=258426141
New Line.263709231 Bus1=259217100 Bus2=263709233
New Line.258406498 Bus1=258406495 Bus2=258406500
New Line.258425351 Bus1=258425348 Bus2=258425353
New Line.258425411 Bus1=258425408 Bus2=258425413
New Line.258444113 Bus1=258444108 Bus2=258444115
New Line.258444192 Bus1=258444174 Bus2=258444194
New Line.263709236 Bus1=263709233 Bus2=260981170
New Line.258406171 Bus1=258406128 Bus2=258406173
New Line.258406231 Bus1=258406228 Bus2=258406233
New Line.263391551 Bus1=258406525 Bus2=263391553
New Line.258406056 Bus1=258406053 Bus2=258406058
New Line.258443814 Bus1=258443811 Bus2=258443816
New Line.263391439 Bus1=263391436 Bus2=258406148
New Line.263391556 Bus1=263391553 Bus2=258406535
New Line.258443894 Bus1=258443876 Bus2=258443896
New Line.258425175 Bus1=620861392 Bus2=258425177
New Line.258425235 Bus1=384399842 Bus2=258425237
New Line.263782332 Bus1=263782329 Bus2=261052101
New Line.258406593 Bus1=615922924 Bus2=258406595
New Line.258426099 Bus1=258426094 Bus2=258426101
New Line.615922790 Bus1=258406620 Bus2=615922792
New Line.700042422 Bus1=700042420 Bus2=258443724
New Line.258406513 Bus1=258406510 Bus2=258406515
New Line.258425230 Bus1=384399842 Bus2=258425232
New Line.258444118 Bus1=258444108 Bus2=258444120
New Line.259108644 Bus1=258425962 Bus2=259108646
New Line.258406051 Bus1=258406048 Bus2=258406053
New Line.263391430 Bus1=263391427 Bus2=260662891
New Line.263782336 Bus1=258425926 Bus2=263782338
New Line.615922795 Bus1=615922792 Bus2=615922786
New Line.700042421 Bus1=258443719 Bus2=700042420
New Line.263391371 Bus1=258405938 Bus2=263391373
New Line.258406336 Bus1=258406333 Bus2=258406338
New Line.263391376 Bus1=263391373 Bus2=258405948
New Line.258405737 Bus1=258405734 Bus2=258405739
New Line.258426114 Bus1=258426101 Bus2=258426116
New Line.261140527 Bus1=259374992 Bus2=261140529
New Line.263391434 Bus1=258406143 Bus2=263391436
New Line.258443899 Bus1=258443896 Bus2=258443901
New Line.258405732 Bus1=258405729 Bus2=258405734
New Line.259446922 Bus1=259198884 Bus2=258443758
New Line.620861251 Bus1=620861248 Bus2=258425080
New Line.258406518 Bus1=258406515 Bus2=258406520
New Line.258425591 Bus1=258425588 Bus2=258425593
New Line.258425336 Bus1=258425328 Bus2=258425338
New Line.258406156 Bus1=258406153 Bus2=258406158
New Line.258406216 Bus1=258406213 Bus2=258406218
New Line.258443914 Bus1=258443911 Bus2=258443916
New Line.258406296 Bus1=258406293 Bus2=258406298
New Line.258443994 Bus1=258443991 Bus2=258443996
New Line.261052089 Bus1=261052090 Bus2=261052091
New Line.258405615 Bus1=258405612 Bus2=258405617
New Line.258425058 Bus1=258425050 Bus2=258425065
New Line.263790331 Bus1=258425937 Bus2=263790333
New Line.258426119 Bus1=258426079 Bus2=258426121
New Line.263790336 Bus1=263790333 Bus2=260005788
New Line.258405610 Bus1=258405605 Bus2=258405612
New Line.258406291 Bus1=258406288 Bus2=258406293
New Line.258425331 Bus1=258425328 Bus2=258425333
New Line.263782318 Bus1=258425967 Bus2=263782320
New Line.258405690 Bus1=258405691 Bus2=258405692
New Line.258406151 Bus1=258406148 Bus2=258406153
New Line.258406211 Bus1=258406208 Bus2=258406213
New Line.258425297 Bus1=258425294 Bus2=258425299
New Line.261052104 Bus1=261052101 Bus2=261052106
New Line.263391358 Bus1=263391355 Bus2=258405764
New Line.258406036 Bus1=258406033 Bus2=258406038
New Line.699612989 Bus1=699612986 Bus2=699612980
New Line.259149285 Bus1=258443981 Bus2=259149287
New Line.258425215 Bus1=258425212 Bus2=258425217
New Line.258443999 Bus1=258443996 Bus2=258444001
New Line.258443919 Bus1=258443911 Bus2=258443921
New Line.258425150 Bus1=258425137 Bus2=258425152
New Line.258425210 Bus1=258425207 Bus2=258425212
New Line.263391412 Bus1=263391409 Bus2=258406073
New Line.263391493 Bus1=263391490 Bus2=258406333
New Line.699612984 Bus1=258405622 Bus2=699612986
New Line.263391353 Bus1=258405754 Bus2=263391355
New Line.258406031 Bus1=258406032 Bus2=258406033
New Line.263997751 Bus1=258444077 Bus2=263997753
New Line.258406316 Bus1=258406313 Bus2=258406318
New Line.263391416 Bus1=258406068 Bus2=263391418
New Line.263391497 Bus1=258406253 Bus2=263391499
New Line.263997756 Bus1=263997753 Bus2=259550269
New Line.258406396 Bus1=426195246 Bus2=258406398
New Line.261052109 Bus1=261052106 Bus2=261052090
New Line.258405712 Bus1=699613129 Bus2=258405714
New Line.258425033 Bus1=258425030 Bus2=258425035
New Line.258406311 Bus1=258406308 Bus2=258406313
New Line.258406136 Bus1=258406133 Bus2=258406138
New Line.258425396 Bus1=258425388 Bus2=258425398
New Line.258425038 Bus1=258425035 Bus2=258425040
New Line.258405799 Bus1=258405796 Bus2=258405801
New Line.258425391 Bus1=258425388 Bus2=258425393
New Line.259219723 Bus1=259219720 Bus2=259219725
New Line.258406131 Bus1=258406123 Bus2=258406133
New Line.259529043 Bus1=258406143 Bus2=259529045
New Line.263391511 Bus1=263391508 Bus2=260662936
New Line.263395474 Bus1=263395471 Bus2=258426151
New Line.258406096 Bus1=258406093 Bus2=258406098
New Line.259228584 Bus1=259228581 Bus2=259228586
New Line.258425135 Bus1=258425132 Bus2=258425137
New Line.263391515 Bus1=258406348 Bus2=263391517
New Line.258425130 Bus1=258425127 Bus2=258425132
New Line.258406091 Bus1=258406088 Bus2=258406093
New Line.258406011 Bus1=258406008 Bus2=258406013
